!- Windows Line endings 

Version,
    22.2;                     !- Version Identifier

SimulationControl,
    Yes,                      !- Do Zone Sizing Calculation
    Yes,                      !- Do System Sizing Calculation
    Yes,                      !- Do Plant Sizing Calculation
    No,                       !- Run Simulation for Sizing Periods
    Yes,                      !- Run Simulation for Weather File Run Periods
    No,                       !- Do HVAC Sizing Simulation for Sizing Periods
    2;                        !- Maximum Number of HVAC Sizing Simulation Passes

Building,
    Building,                 !- Name
    180,                      !- North Axis
    Suburbs,                  !- Terrain
    0.04,                     !- Loads Convergence Tolerance Value
    0.25,                     !- Temperature Convergence Tolerance Value
    MinimalShadowing,         !- Solar Distribution
    25,                       !- Maximum Number of Warmup Days
    6;                        !- Minimum Number of Warmup Days

ShadowCalculation,
    PolygonClipping,          !- Shading Calculation Method
    Periodic,                 !- Shading Calculation Update Frequency Method
    20,                       !- Shading Calculation Update Frequency
    15000,                    !- Maximum Figures in Shadow Overlap Calculations
    ,                         !- Polygon Clipping Algorithm
    512,                      !- Pixel Counting Resolution
    SimpleSkyDiffuseModeling,    !- Sky Diffuse Modeling Algorithm
    Yes,                      !- Output External Shading Calculation Results
    No,                       !- Disable SelfShading Within Shading Zone Groups
    No;                       !- Disable SelfShading From Shading Zone Groups to Other Zones

SurfaceConvectionAlgorithm:Inside,
    TARP;                     !- Algorithm

SurfaceConvectionAlgorithm:Outside,
    DOE-2;                    !- Algorithm

HeatBalanceAlgorithm,
    ConductionTransferFunction,    !- Algorithm
    200,                      !- Surface Temperature Upper Limit
    0.1,                      !- Minimum Surface Convection Heat Transfer Coefficient Value
    1000;                     !- Maximum Surface Convection Heat Transfer Coefficient Value

ZoneAirContaminantBalance,
    Yes,                      !- Carbon Dioxide Concentration
    GlobalCO2,                !- Outdoor Carbon Dioxide Schedule Name
    No,                       !- Generic Contaminant Concentration
    Off;                      !- Outdoor Generic Contaminant Schedule Name

Timestep,
    60;                       !- Number of Timesteps per Hour

ConvergenceLimits,
    0,                        !- Minimum System Timestep
    50,                       !- Maximum HVAC Iterations
    3,                        !- Minimum Plant Iterations
    9;                        !- Maximum Plant Iterations

SizingPeriod:WeatherFileConditionType,
    Extreme Summer Weather Period for Design,    !- Name
    SummerExtreme,            !- Period Selection
    SummerDesignDay,          !- Day of Week for Start Day
    No,                       !- Use Weather File Daylight Saving Period
    No;                       !- Use Weather File Rain and Snow Indicators

SizingPeriod:WeatherFileConditionType,
    Extreme Winter Weather Period for Design,    !- Name
    WinterExtreme,            !- Period Selection
    WinterDesignDay,          !- Day of Week for Start Day
    No,                       !- Use Weather File Daylight Saving Period
    No;                       !- Use Weather File Rain and Snow Indicators

RunPeriod,
    Climate Studio,           !- Name
    1,                        !- Begin Month
    1,                        !- Begin Day of Month
    ,                         !- Begin Year
    12,                       !- End Month
    31,                       !- End Day of Month
    ,                         !- End Year
    Sunday,                   !- Day of Week for Start Day
    No,                       !- Use Weather File Holidays and Special Days
    No,                       !- Use Weather File Daylight Saving Period
    No,                       !- Apply Weekend Holiday Rule
    Yes,                      !- Use Weather File Rain Indicators
    Yes,                      !- Use Weather File Snow Indicators
    No;                       !- Treat Weather as Actual

RunPeriodControl:DaylightSavingTime,
    2nd Sunday in March,      !- Start Date
    1st Sunday in November;    !- End Date

Site:WeatherStation,
    10,                       !- Wind Sensor Height Above Ground
    0.22,                     !- Wind Speed Profile Exponent
    370,                      !- Wind Speed Profile Boundary Layer Thickness
    1.5;                      !- Air Temperature Sensor Height Above Ground

Site:GroundTemperature:BuildingSurface,
    18,                       !- January Ground Temperature
    18,                       !- February Ground Temperature
    18,                       !- March Ground Temperature
    18,                       !- April Ground Temperature
    18,                       !- May Ground Temperature
    18,                       !- June Ground Temperature
    18,                       !- July Ground Temperature
    18,                       !- August Ground Temperature
    18,                       !- September Ground Temperature
    18,                       !- October Ground Temperature
    18,                       !- November Ground Temperature
    18;                       !- December Ground Temperature

Site:GroundReflectance,
    0.2,                      !- January Ground Reflectance
    0.2,                      !- February Ground Reflectance
    0.2,                      !- March Ground Reflectance
    0.2,                      !- April Ground Reflectance
    0.2,                      !- May Ground Reflectance
    0.2,                      !- June Ground Reflectance
    0.2,                      !- July Ground Reflectance
    0.2,                      !- August Ground Reflectance
    0.2,                      !- September Ground Reflectance
    0.2,                      !- October Ground Reflectance
    0.2,                      !- November Ground Reflectance
    0.2;                      !- December Ground Reflectance

Site:GroundReflectance:SnowModifier,
    1,                        !- Ground Reflected Solar Modifier
    1;                        !- Daylighting Ground Reflected Solar Modifier

ScheduleTypeLimits,
    Any Number;               !- Name

ScheduleTypeLimits,
    Fraction,                 !- Name
    0,                        !- Lower Limit Value
    1,                        !- Upper Limit Value
    CONTINUOUS;               !- Numeric Type

ScheduleTypeLimits,
    Temperature,              !- Name
    -60,                      !- Lower Limit Value
    200,                      !- Upper Limit Value
    CONTINUOUS;               !- Numeric Type

ScheduleTypeLimits,
    AnyNumber,                !- Name
    -100000000000,            !- Lower Limit Value
    100000000000,             !- Upper Limit Value
    CONTINUOUS;               !- Numeric Type

ScheduleTypeLimits,
    Control Type,             !- Name
    0,                        !- Lower Limit Value
    4,                        !- Upper Limit Value
    DISCRETE;                 !- Numeric Type

ScheduleTypeLimits,
    On/Off,                   !- Name
    0,                        !- Lower Limit Value
    1,                        !- Upper Limit Value
    DISCRETE;                 !- Numeric Type

Schedule:Day:Hourly,
    2be2d31f-5512-4d60-8bae-fed3de3edaa3,    !- Name
    AnyNumber,                !- Schedule Type Limits Name
    412.77,                   !- Hour 1
    412.77167,                !- Hour 2
    412.77333,                !- Hour 3
    412.775,                  !- Hour 4
    412.77667,                !- Hour 5
    412.77833,                !- Hour 6
    412.78,                   !- Hour 7
    412.78167,                !- Hour 8
    412.78333,                !- Hour 9
    412.785,                  !- Hour 10
    412.78667,                !- Hour 11
    412.78833,                !- Hour 12
    412.79,                   !- Hour 13
    412.79167,                !- Hour 14
    412.79333,                !- Hour 15
    412.795,                  !- Hour 16
    412.79667,                !- Hour 17
    412.79833,                !- Hour 18
    412.8,                    !- Hour 19
    412.80167,                !- Hour 20
    412.80333,                !- Hour 21
    412.805,                  !- Hour 22
    412.80667,                !- Hour 23
    412.80833;                !- Hour 24

Schedule:Day:Hourly,
    29fe5f72-bc22-484d-8384-83e69fed04a9,    !- Name
    AnyNumber,                !- Schedule Type Limits Name
    412.81,                   !- Hour 1
    412.81125,                !- Hour 2
    412.8125,                 !- Hour 3
    412.81375,                !- Hour 4
    412.815,                  !- Hour 5
    412.81625,                !- Hour 6
    412.8175,                 !- Hour 7
    412.81875,                !- Hour 8
    412.82,                   !- Hour 9
    412.82125,                !- Hour 10
    412.8225,                 !- Hour 11
    412.82375,                !- Hour 12
    412.825,                  !- Hour 13
    412.82625,                !- Hour 14
    412.8275,                 !- Hour 15
    412.82875,                !- Hour 16
    412.83,                   !- Hour 17
    412.83125,                !- Hour 18
    412.8325,                 !- Hour 19
    412.83375,                !- Hour 20
    412.835,                  !- Hour 21
    412.83625,                !- Hour 22
    412.8375,                 !- Hour 23
    412.83875;                !- Hour 24

Schedule:Day:Hourly,
    6853f72a-ae4b-4414-87ae-b23fdae23930,    !- Name
    AnyNumber,                !- Schedule Type Limits Name
    412.84,                   !- Hour 1
    412.84167,                !- Hour 2
    412.84333,                !- Hour 3
    412.845,                  !- Hour 4
    412.84667,                !- Hour 5
    412.84833,                !- Hour 6
    412.85,                   !- Hour 7
    412.85167,                !- Hour 8
    412.85333,                !- Hour 9
    412.855,                  !- Hour 10
    412.85667,                !- Hour 11
    412.85833,                !- Hour 12
    412.86,                   !- Hour 13
    412.86167,                !- Hour 14
    412.86333,                !- Hour 15
    412.865,                  !- Hour 16
    412.86667,                !- Hour 17
    412.86833,                !- Hour 18
    412.87,                   !- Hour 19
    412.87167,                !- Hour 20
    412.87333,                !- Hour 21
    412.875,                  !- Hour 22
    412.87667,                !- Hour 23
    412.87833;                !- Hour 24

Schedule:Day:Hourly,
    f56074da-4097-43fb-bb09-ff394b4ca0cf,    !- Name
    AnyNumber,                !- Schedule Type Limits Name
    412.88,                   !- Hour 1
    412.88125,                !- Hour 2
    412.8825,                 !- Hour 3
    412.88375,                !- Hour 4
    412.885,                  !- Hour 5
    412.88625,                !- Hour 6
    412.8875,                 !- Hour 7
    412.88875,                !- Hour 8
    412.89,                   !- Hour 9
    412.89125,                !- Hour 10
    412.8925,                 !- Hour 11
    412.89375,                !- Hour 12
    412.895,                  !- Hour 13
    412.89625,                !- Hour 14
    412.8975,                 !- Hour 15
    412.89875,                !- Hour 16
    412.9,                    !- Hour 17
    412.90125,                !- Hour 18
    412.9025,                 !- Hour 19
    412.90375,                !- Hour 20
    412.905,                  !- Hour 21
    412.90625,                !- Hour 22
    412.9075,                 !- Hour 23
    412.90875;                !- Hour 24

Schedule:Day:Hourly,
    9a1e8a6d-6a57-47bb-a42e-05b59075dba4,    !- Name
    AnyNumber,                !- Schedule Type Limits Name
    412.91,                   !- Hour 1
    412.91167,                !- Hour 2
    412.91333,                !- Hour 3
    412.915,                  !- Hour 4
    412.91667,                !- Hour 5
    412.91833,                !- Hour 6
    412.92,                   !- Hour 7
    412.92167,                !- Hour 8
    412.92333,                !- Hour 9
    412.925,                  !- Hour 10
    412.92667,                !- Hour 11
    412.92833,                !- Hour 12
    412.93,                   !- Hour 13
    412.93167,                !- Hour 14
    412.93333,                !- Hour 15
    412.935,                  !- Hour 16
    412.93667,                !- Hour 17
    412.93833,                !- Hour 18
    412.94,                   !- Hour 19
    412.94167,                !- Hour 20
    412.94333,                !- Hour 21
    412.945,                  !- Hour 22
    412.94667,                !- Hour 23
    412.94833;                !- Hour 24

Schedule:Day:Hourly,
    47effbeb-55c4-49ce-8e6b-df37f765bf57,    !- Name
    AnyNumber,                !- Schedule Type Limits Name
    412.95,                   !- Hour 1
    412.95125,                !- Hour 2
    412.9525,                 !- Hour 3
    412.95375,                !- Hour 4
    412.955,                  !- Hour 5
    412.95625,                !- Hour 6
    412.9575,                 !- Hour 7
    412.95875,                !- Hour 8
    412.96,                   !- Hour 9
    412.96125,                !- Hour 10
    412.9625,                 !- Hour 11
    412.96375,                !- Hour 12
    412.965,                  !- Hour 13
    412.96625,                !- Hour 14
    412.9675,                 !- Hour 15
    412.96875,                !- Hour 16
    412.97,                   !- Hour 17
    412.97125,                !- Hour 18
    412.9725,                 !- Hour 19
    412.97375,                !- Hour 20
    412.975,                  !- Hour 21
    412.97625,                !- Hour 22
    412.9775,                 !- Hour 23
    412.97875;                !- Hour 24

Schedule:Day:Hourly,
    10a71303-f41a-4945-867d-87dea613d2fe,    !- Name
    AnyNumber,                !- Schedule Type Limits Name
    412.98,                   !- Hour 1
    412.98125,                !- Hour 2
    412.9825,                 !- Hour 3
    412.98375,                !- Hour 4
    412.985,                  !- Hour 5
    412.98625,                !- Hour 6
    412.9875,                 !- Hour 7
    412.98875,                !- Hour 8
    412.99,                   !- Hour 9
    412.99125,                !- Hour 10
    412.9925,                 !- Hour 11
    412.99375,                !- Hour 12
    412.995,                  !- Hour 13
    412.99625,                !- Hour 14
    412.9975,                 !- Hour 15
    412.99875,                !- Hour 16
    413,                      !- Hour 17
    413.00125,                !- Hour 18
    413.0025,                 !- Hour 19
    413.00375,                !- Hour 20
    413.005,                  !- Hour 21
    413.00625,                !- Hour 22
    413.0075,                 !- Hour 23
    413.00875;                !- Hour 24

Schedule:Day:Hourly,
    19c01a37-0d62-448d-aabc-425f4be14638,    !- Name
    AnyNumber,                !- Schedule Type Limits Name
    413.01,                   !- Hour 1
    413.01125,                !- Hour 2
    413.0125,                 !- Hour 3
    413.01375,                !- Hour 4
    413.015,                  !- Hour 5
    413.01625,                !- Hour 6
    413.0175,                 !- Hour 7
    413.01875,                !- Hour 8
    413.02,                   !- Hour 9
    413.02125,                !- Hour 10
    413.0225,                 !- Hour 11
    413.02375,                !- Hour 12
    413.025,                  !- Hour 13
    413.02625,                !- Hour 14
    413.0275,                 !- Hour 15
    413.02875,                !- Hour 16
    413.03,                   !- Hour 17
    413.03125,                !- Hour 18
    413.0325,                 !- Hour 19
    413.03375,                !- Hour 20
    413.035,                  !- Hour 21
    413.03625,                !- Hour 22
    413.0375,                 !- Hour 23
    413.03875;                !- Hour 24

Schedule:Day:Hourly,
    4d536ba6-b3c4-49ba-b816-aab864df2dad,    !- Name
    AnyNumber,                !- Schedule Type Limits Name
    413.04,                   !- Hour 1
    413.04167,                !- Hour 2
    413.04333,                !- Hour 3
    413.045,                  !- Hour 4
    413.04667,                !- Hour 5
    413.04833,                !- Hour 6
    413.05,                   !- Hour 7
    413.05167,                !- Hour 8
    413.05333,                !- Hour 9
    413.055,                  !- Hour 10
    413.05667,                !- Hour 11
    413.05833,                !- Hour 12
    413.06,                   !- Hour 13
    413.06167,                !- Hour 14
    413.06333,                !- Hour 15
    413.065,                  !- Hour 16
    413.06667,                !- Hour 17
    413.06833,                !- Hour 18
    413.07,                   !- Hour 19
    413.07167,                !- Hour 20
    413.07333,                !- Hour 21
    413.075,                  !- Hour 22
    413.07667,                !- Hour 23
    413.07833;                !- Hour 24

Schedule:Day:Hourly,
    9e6c9abe-efd1-4908-989a-3fd2186be089,    !- Name
    AnyNumber,                !- Schedule Type Limits Name
    413.08,                   !- Hour 1
    413.08125,                !- Hour 2
    413.0825,                 !- Hour 3
    413.08375,                !- Hour 4
    413.085,                  !- Hour 5
    413.08625,                !- Hour 6
    413.0875,                 !- Hour 7
    413.08875,                !- Hour 8
    413.09,                   !- Hour 9
    413.09125,                !- Hour 10
    413.0925,                 !- Hour 11
    413.09375,                !- Hour 12
    413.095,                  !- Hour 13
    413.09625,                !- Hour 14
    413.0975,                 !- Hour 15
    413.09875,                !- Hour 16
    413.1,                    !- Hour 17
    413.10125,                !- Hour 18
    413.1025,                 !- Hour 19
    413.10375,                !- Hour 20
    413.105,                  !- Hour 21
    413.10625,                !- Hour 22
    413.1075,                 !- Hour 23
    413.10875;                !- Hour 24

Schedule:Day:Hourly,
    66236614-dcd3-436a-b150-2a74ec86c8a7,    !- Name
    AnyNumber,                !- Schedule Type Limits Name
    413.11,                   !- Hour 1
    413.11125,                !- Hour 2
    413.1125,                 !- Hour 3
    413.11375,                !- Hour 4
    413.115,                  !- Hour 5
    413.11625,                !- Hour 6
    413.1175,                 !- Hour 7
    413.11875,                !- Hour 8
    413.12,                   !- Hour 9
    413.12125,                !- Hour 10
    413.1225,                 !- Hour 11
    413.12375,                !- Hour 12
    413.125,                  !- Hour 13
    413.12625,                !- Hour 14
    413.1275,                 !- Hour 15
    413.12875,                !- Hour 16
    413.13,                   !- Hour 17
    413.13125,                !- Hour 18
    413.1325,                 !- Hour 19
    413.13375,                !- Hour 20
    413.135,                  !- Hour 21
    413.13625,                !- Hour 22
    413.1375,                 !- Hour 23
    413.13875;                !- Hour 24

Schedule:Day:Hourly,
    c5bcc8e9-112d-4553-bf84-b96f865e754c,    !- Name
    AnyNumber,                !- Schedule Type Limits Name
    413.14,                   !- Hour 1
    413.14125,                !- Hour 2
    413.1425,                 !- Hour 3
    413.14375,                !- Hour 4
    413.145,                  !- Hour 5
    413.14625,                !- Hour 6
    413.1475,                 !- Hour 7
    413.14875,                !- Hour 8
    413.15,                   !- Hour 9
    413.15125,                !- Hour 10
    413.1525,                 !- Hour 11
    413.15375,                !- Hour 12
    413.155,                  !- Hour 13
    413.15625,                !- Hour 14
    413.1575,                 !- Hour 15
    413.15875,                !- Hour 16
    413.16,                   !- Hour 17
    413.16125,                !- Hour 18
    413.1625,                 !- Hour 19
    413.16375,                !- Hour 20
    413.165,                  !- Hour 21
    413.16625,                !- Hour 22
    413.1675,                 !- Hour 23
    413.16875;                !- Hour 24

Schedule:Day:Hourly,
    ece18449-0860-4e97-98d8-85dcd6c35384,    !- Name
    AnyNumber,                !- Schedule Type Limits Name
    413.17,                   !- Hour 1
    413.17125,                !- Hour 2
    413.1725,                 !- Hour 3
    413.17375,                !- Hour 4
    413.175,                  !- Hour 5
    413.17625,                !- Hour 6
    413.1775,                 !- Hour 7
    413.17875,                !- Hour 8
    413.18,                   !- Hour 9
    413.18125,                !- Hour 10
    413.1825,                 !- Hour 11
    413.18375,                !- Hour 12
    413.185,                  !- Hour 13
    413.18625,                !- Hour 14
    413.1875,                 !- Hour 15
    413.18875,                !- Hour 16
    413.19,                   !- Hour 17
    413.19125,                !- Hour 18
    413.1925,                 !- Hour 19
    413.19375,                !- Hour 20
    413.195,                  !- Hour 21
    413.19625,                !- Hour 22
    413.1975,                 !- Hour 23
    413.19875;                !- Hour 24

Schedule:Day:Hourly,
    9dafba14-f220-4040-8875-3e85a52eaecd,    !- Name
    AnyNumber,                !- Schedule Type Limits Name
    413.2,                    !- Hour 1
    413.20125,                !- Hour 2
    413.2025,                 !- Hour 3
    413.20375,                !- Hour 4
    413.205,                  !- Hour 5
    413.20625,                !- Hour 6
    413.2075,                 !- Hour 7
    413.20875,                !- Hour 8
    413.21,                   !- Hour 9
    413.21125,                !- Hour 10
    413.2125,                 !- Hour 11
    413.21375,                !- Hour 12
    413.215,                  !- Hour 13
    413.21625,                !- Hour 14
    413.2175,                 !- Hour 15
    413.21875,                !- Hour 16
    413.22,                   !- Hour 17
    413.22125,                !- Hour 18
    413.2225,                 !- Hour 19
    413.22375,                !- Hour 20
    413.225,                  !- Hour 21
    413.22625,                !- Hour 22
    413.2275,                 !- Hour 23
    413.22875;                !- Hour 24

Schedule:Day:Hourly,
    aebfd725-0e47-4938-b869-6ff01134644f,    !- Name
    AnyNumber,                !- Schedule Type Limits Name
    413.23,                   !- Hour 1
    413.23083,                !- Hour 2
    413.23167,                !- Hour 3
    413.2325,                 !- Hour 4
    413.23333,                !- Hour 5
    413.23417,                !- Hour 6
    413.235,                  !- Hour 7
    413.23583,                !- Hour 8
    413.23667,                !- Hour 9
    413.2375,                 !- Hour 10
    413.23833,                !- Hour 11
    413.23917,                !- Hour 12
    413.24,                   !- Hour 13
    413.24083,                !- Hour 14
    413.24167,                !- Hour 15
    413.2425,                 !- Hour 16
    413.24333,                !- Hour 17
    413.24417,                !- Hour 18
    413.245,                  !- Hour 19
    413.24583,                !- Hour 20
    413.24667,                !- Hour 21
    413.2475,                 !- Hour 22
    413.24833,                !- Hour 23
    413.24917;                !- Hour 24

Schedule:Day:Hourly,
    fecc26e1-ba81-4ac1-a12e-a057ae2af2a7,    !- Name
    AnyNumber,                !- Schedule Type Limits Name
    413.25,                   !- Hour 1
    413.25125,                !- Hour 2
    413.2525,                 !- Hour 3
    413.25375,                !- Hour 4
    413.255,                  !- Hour 5
    413.25625,                !- Hour 6
    413.2575,                 !- Hour 7
    413.25875,                !- Hour 8
    413.26,                   !- Hour 9
    413.26125,                !- Hour 10
    413.2625,                 !- Hour 11
    413.26375,                !- Hour 12
    413.265,                  !- Hour 13
    413.26625,                !- Hour 14
    413.2675,                 !- Hour 15
    413.26875,                !- Hour 16
    413.27,                   !- Hour 17
    413.27125,                !- Hour 18
    413.2725,                 !- Hour 19
    413.27375,                !- Hour 20
    413.275,                  !- Hour 21
    413.27625,                !- Hour 22
    413.2775,                 !- Hour 23
    413.27875;                !- Hour 24

Schedule:Day:Hourly,
    0166e3d4-fc82-4a5a-b258-dc13322a8a36,    !- Name
    AnyNumber,                !- Schedule Type Limits Name
    413.28,                   !- Hour 1
    413.28125,                !- Hour 2
    413.2825,                 !- Hour 3
    413.28375,                !- Hour 4
    413.285,                  !- Hour 5
    413.28625,                !- Hour 6
    413.2875,                 !- Hour 7
    413.28875,                !- Hour 8
    413.29,                   !- Hour 9
    413.29125,                !- Hour 10
    413.2925,                 !- Hour 11
    413.29375,                !- Hour 12
    413.295,                  !- Hour 13
    413.29625,                !- Hour 14
    413.2975,                 !- Hour 15
    413.29875,                !- Hour 16
    413.3,                    !- Hour 17
    413.30125,                !- Hour 18
    413.3025,                 !- Hour 19
    413.30375,                !- Hour 20
    413.305,                  !- Hour 21
    413.30625,                !- Hour 22
    413.3075,                 !- Hour 23
    413.30875;                !- Hour 24

Schedule:Day:Hourly,
    3c2b167d-f4cb-4c15-bd59-8e087ae6bb83,    !- Name
    AnyNumber,                !- Schedule Type Limits Name
    413.31,                   !- Hour 1
    413.31083,                !- Hour 2
    413.31167,                !- Hour 3
    413.3125,                 !- Hour 4
    413.31333,                !- Hour 5
    413.31417,                !- Hour 6
    413.315,                  !- Hour 7
    413.31583,                !- Hour 8
    413.31667,                !- Hour 9
    413.3175,                 !- Hour 10
    413.31833,                !- Hour 11
    413.31917,                !- Hour 12
    413.32,                   !- Hour 13
    413.32083,                !- Hour 14
    413.32167,                !- Hour 15
    413.3225,                 !- Hour 16
    413.32333,                !- Hour 17
    413.32417,                !- Hour 18
    413.325,                  !- Hour 19
    413.32583,                !- Hour 20
    413.32667,                !- Hour 21
    413.3275,                 !- Hour 22
    413.32833,                !- Hour 23
    413.32917;                !- Hour 24

Schedule:Day:Hourly,
    3e6863bd-e7b9-417e-8efa-0407a7901950,    !- Name
    AnyNumber,                !- Schedule Type Limits Name
    413.33,                   !- Hour 1
    413.33125,                !- Hour 2
    413.3325,                 !- Hour 3
    413.33375,                !- Hour 4
    413.335,                  !- Hour 5
    413.33625,                !- Hour 6
    413.3375,                 !- Hour 7
    413.33875,                !- Hour 8
    413.34,                   !- Hour 9
    413.34125,                !- Hour 10
    413.3425,                 !- Hour 11
    413.34375,                !- Hour 12
    413.345,                  !- Hour 13
    413.34625,                !- Hour 14
    413.3475,                 !- Hour 15
    413.34875,                !- Hour 16
    413.35,                   !- Hour 17
    413.35125,                !- Hour 18
    413.3525,                 !- Hour 19
    413.35375,                !- Hour 20
    413.355,                  !- Hour 21
    413.35625,                !- Hour 22
    413.3575,                 !- Hour 23
    413.35875;                !- Hour 24

Schedule:Day:Hourly,
    937548b0-eb96-4a58-8d1f-ac4fbe8491ef,    !- Name
    AnyNumber,                !- Schedule Type Limits Name
    413.36,                   !- Hour 1
    413.36083,                !- Hour 2
    413.36167,                !- Hour 3
    413.3625,                 !- Hour 4
    413.36333,                !- Hour 5
    413.36417,                !- Hour 6
    413.365,                  !- Hour 7
    413.36583,                !- Hour 8
    413.36667,                !- Hour 9
    413.3675,                 !- Hour 10
    413.36833,                !- Hour 11
    413.36917,                !- Hour 12
    413.37,                   !- Hour 13
    413.37083,                !- Hour 14
    413.37167,                !- Hour 15
    413.3725,                 !- Hour 16
    413.37333,                !- Hour 17
    413.37417,                !- Hour 18
    413.375,                  !- Hour 19
    413.37583,                !- Hour 20
    413.37667,                !- Hour 21
    413.3775,                 !- Hour 22
    413.37833,                !- Hour 23
    413.37917;                !- Hour 24

Schedule:Day:Hourly,
    9398f026-4628-42ae-a903-a984c455b4a4,    !- Name
    AnyNumber,                !- Schedule Type Limits Name
    413.38,                   !- Hour 1
    413.38125,                !- Hour 2